%chk=chloro_methane.chk
# hf/sto-3g geom=connectivity

Title Card Required

0 1
 C                 -0.00000000   -0.00000000   -1.14002662
 H                 -0.00000000    1.03034044   -1.48911714
 H                  0.89230100   -0.51517022   -1.48911714
 H                 -0.89230100   -0.51517022   -1.48911714
 Cl                 0.00000000    0.00000000    0.66514771

 1 2 1.0 3 1.0 4 1.0 5 1.0
 2
 3
 4
 5

