%chk=hydrogen_sulphide_dimer.chk
# opt hf/sto-3g geom=connectivity

Title Card Required

0 1
 H                 -0.45414802    0.03386748   -0.01416905
 H                 -1.70313955   -0.75835785    0.33325612
 H                  1.68574988    0.01079902   -0.84616978
 H                  1.68104920    0.66096991    0.53057507
 S                 -1.43985597    0.11331571   -0.05040067
 S                  1.28866703   -0.10672553    0.04996413

 1 3 0.0 5 1.0 6 0.0
 2 5 1.0
 3 6 1.0
 4 6 1.0
 5
 6

