%chk=ethyl_alcohol.chk
# hf/sto-3g geom=connectivity

Title Card Required

0 1
 C                  0.09506613    0.54651309   -0.00000869
 C                 -1.24303360   -0.21922659    0.00002881
 H                  0.14438995    1.19556902   -0.88351886
 H                  0.14433630    1.19570967    0.88341068
 H                 -1.31774954   -0.84666031    0.88277858
 H                 -2.07434690    0.47916077   -0.00342337
 H                 -1.31459674   -0.85163394   -0.87943144
 O                  1.16517670   -0.41037977   -0.00003641
 H                  1.98435811    0.14717398    0.00035495

 1 2 1.0 3 1.0 4 1.0 8 1.0
 2 5 1.0 6 1.0 7 1.0
 3
 4
 5
 6
 7
 8 9 1.0
 9

