%chk=transition_state.chk
# hf/sto-3g geom=connectivity

Title Card Required

-1 1
 C                  0.24392801   -1.30655672    0.26429149
 C                 -0.73831029   -0.43970609    1.09467795
 H                 -0.12766911   -1.40504853   -0.75626253
 H                  1.22328125   -0.84157857    0.22661257
 H                  0.34001477   -2.29334856    0.70052549
 H                 -1.97877525   -0.89086103    1.10496892
 Br                -0.18067205   -1.34058218    3.53071762
 O                 -0.92550130    0.43061030   -0.53845062
 H                 -1.61851894    0.63990909   -4.04484196
 H                 -1.92154562    0.30398503    1.62916919

 1 2 1.0 3 1.0 4 1.0 5 1.0
 2 6 1.0 7 0.5 8 0.5 10 1.0
 3
 4
 5
 6
 7
 8 9 1.0
 9
 10

