%nprocshared=4
%chk=butane.chk
# opt=modredundant hf/sto-3g geom=connectivity

Title Card Required

0 1
 C                 -1.14822545   -0.17223382    0.00000000
 C                  0.35849255   -0.17223382    0.00000000
 H                 -1.53683645    0.87465918    0.00000000
 H                 -1.54273845   -0.69486682   -0.90484200
 H                 -1.54266045   -0.69473282    0.90497600
 C                  0.91608355   -1.58008482    0.00017800
 H                  0.73568655    0.37780418   -0.90243600
 H                  0.73208555    0.35835118    0.91549200
 C                  2.42281755   -1.58005682    0.00011300
 H                  0.53890855   -2.13010882    0.90259600
 H                  0.53884455   -2.13030982   -0.90209700
 H                  2.81161955   -2.62685282    0.00026200
 H                  2.81712855   -1.05743082   -0.90484300
 H                  2.81720855   -1.05713982    0.90486600

 1 2 1.0 3 1.0 4 1.0 5 1.0
 2 6 1.0 7 1.0 8 1.0
 3
 4
 5
 6 9 1.0 10 1.0 11 1.0
 7
 8
 9 12 1.0 13 1.0 14 1.0
 10
 11
 12
 13
 14

D 1 2 6 9 S 36 10.000000

