%chk=methyl_alcohol.chk
# hf/sto-3g geom=connectivity

Title Card Required

0 1
 C                 -0.66670495   -0.01690964   -0.00000318
 H                 -1.09958148    0.98498502   -0.00015694
 H                 -1.03229243   -0.54538100    0.88665839
 H                 -1.03252675   -0.54577564   -0.88636085
 O                  0.75905960    0.12678670   -0.00001758
 H                  1.09215359   -0.80666410    0.00001913

 1 2 1.0 3 1.0 4 1.0 5 1.0
 2
 3
 4
 5 6 1.0
 6

