%chk=transition_state.chk
# hf/sto-3g geom=connectivity

Title Card Required

-1 1
 C                  0.19877931    0.44766975   -0.97328208
 H                 -0.13838154   -0.56770220   -0.98885003
 H                 -0.06907841    1.11677279   -0.18242598
 H                  0.79228155    0.76656607   -1.80452226
 I                 -1.27418176    1.29406493   -2.20778638
 O                  1.51041608   -0.30602500    0.12601461
 H                  3.18144938   -1.06011256   -0.50849279

 1 2 1.0 3 1.0 4 1.0 5 0.5 6 0.5
 2
 3
 4
 5
 6 7 1.0
 7

