%chk=chair_cyclohexane.chk
# hf/sto-3g geom=connectivity

Title Card Required

0 1
 C                 -0.82090610    1.22091800   -0.23407846
 C                 -1.46779965   -0.10046772    0.23408957
 C                 -0.64689295   -1.32137839   -0.23409743
 C                  0.82089969   -1.22091782    0.23409493
 C                  1.46780136    0.10045951   -0.23408466
 C                  0.64689708    1.32138223    0.23407641
 H                 -1.09441904   -2.23552329    0.15064590
 H                 -1.53057569   -0.10477400    1.32067065
 H                 -2.48322487   -0.16996845   -0.15068218
 H                 -0.85603194    1.27314410   -1.32065966
 H                 -1.38879965    2.06554947    0.15070820
 H                  0.85599024   -1.27311652    1.32067715
 H                  1.38880461   -2.06555918   -0.15065605
 H                  2.48322231    0.16996287    0.15069691
 H                  1.53059002    0.10474764   -1.32066532
 H                  0.67457708    1.37791204    1.32065727
 H                  1.09441307    2.23551144   -0.15071473
 H                 -0.67454273   -1.37786096   -1.32068031

 1 2 1.0 6 1.0 10 1.0 11 1.0
 2 3 1.0 8 1.0 9 1.0
 3 4 1.0 7 1.0 18 1.0
 4 5 1.0 12 1.0 13 1.0
 5 6 1.0 14 1.0 15 1.0
 6 16 1.0 17 1.0
 7
 8
 9
 10
 11
 12
 13
 14
 15
 16
 17
 18

