%chk=acetaldehyde.chk
# opt=calcfc freq=raman hf/sto-3g geom=connectivity

Title Card Required

0 1
 C                 -1.14822545    0.89248435    0.00000000
 O                 -2.12161962    0.22217125    0.00000000
 C                  0.25662521    0.35705604    0.00000000
 H                  0.78514110    0.72506851   -0.87567216
 H                  0.78514110    0.72506851    0.87567216
 H                  0.24726474   -0.72474753    0.00000000
 H                 -1.22852574    1.95946695    0.00000000

 1 2 2.0 3 1.0 7 1.0
 2
 3 4 1.0 5 1.0 6 1.0
 4
 5
 6
 7

